Circuit: * C:\Users\107475\OneDrive - BMK Group GmbH & Co. KG\BMK-Abschlussprojekt\03_Simulation\DEC-STAGE\Draft2.asc

.OP point found by inspection.

Date: Thu Mar 11 13:22:38 2021
Total elapsed time: 0.035 seconds.

tnom = 27
temp = 27
method = modified trap
totiter = 2554
traniter = 2554
tranpoints = 1278
accept = 1166
rejected = 112
matrix size = 5
fillins = 0
solver = Normal
Matrix Compiler1: 150 bytes object code size  0.1/0.1/[0.1]
Matrix Compiler2: 321 bytes object code size  0.1/0.1/[0.0]

