Circuit: * C:\Users\107475\OneDrive - BMK Group GmbH & Co. KG\BMK-Abschlussprojekt\03_Simulation\DEC-LOGIG\P-Chanal-Diode\Draft2.asc

Direct Newton iteration for .op point succeeded.

Date: Mon Mar 29 11:49:43 2021
Total elapsed time: 0.059 seconds.

tnom = 27
temp = 27
method = modified trap
totiter = 4231
traniter = 4228
tranpoints = 2091
accept = 1890
rejected = 201
matrix size = 10
fillins = 0
solver = Normal
Matrix Compiler1: off  [0.1]/0.1/0.1
Matrix Compiler2: 436 bytes object code size  0.1/0.1/[0.1]

