Circuit: * C:\Users\Maximilian\Desktop\Work\Pegelanpassung.asc

Direct Newton iteration for .op point succeeded.

Date: Thu Jan 28 21:48:17 2021
Total elapsed time: 0.093 seconds.

tnom = 27
temp = 27
method = modified trap
totiter = 5612
traniter = 5600
tranpoints = 2207
accept = 1879
rejected = 328
matrix size = 30
fillins = 14
solver = Normal
Thread vector: 5.1/3.5[3] 1.5/1.6[1] 0.6/0.8[1] 0.1/0.8[1]  2592/500
Matrix Compiler1: 1.69 KB object code size  0.4/0.2/[0.1]
Matrix Compiler2: 2.48 KB object code size  0.2/0.3/[0.2]

