Circuit: * C:\Users\107475\OneDrive - BMK Group GmbH & Co. KG\BMK-Abschlussprojekt\03_Simulation\CC-Logic\Draft2.asc

Direct Newton iteration for .op point succeeded.

Date: Mon Mar 29 12:01:25 2021
Total elapsed time: 0.032 seconds.

tnom = 27
temp = 27
method = modified trap
totiter = 4238
traniter = 4234
tranpoints = 2091
accept = 1890
rejected = 201
matrix size = 12
fillins = 0
solver = Normal
Matrix Compiler1: 212 bytes object code size  0.0/0.1/[0.0]
Matrix Compiler2: off  [0.0]/0.1/0.1

