Circuit: * C:\Users\107475\OneDrive - BMK Group GmbH & Co. KG\BMK-Abschlussprojekt\03_Simulation\CC-Logic\Draft1.asc

Direct Newton iteration failed to find .op point.  (Use ".option noopiter" to skip.)
Starting Gmin stepping
Gmin = 10
Gmin = 1.07374
vernier = 0.5
vernier = 0.25
vernier = 0.125
vernier = 0.0625
Gmin = 0.995033
vernier = 0.03125
vernier = 0.015625
vernier = 0.0078125
vernier = 0.00390625
Gmin = 0.999816
vernier = 0.00195313
vernier = 0.000976563
vernier = 0.000488281
Gmin = 0
Gmin stepping failed

Starting source stepping with srcstepmethod=0
Could not converge to DC with sources off!
Starting source stepping with srcstepmethod=1
Could not converge to DC with sources off!
Pseudo Transient failed in finding the operating point at 0 s.
Trouble finding operating point....skipping operating point for Transient analysis.
to 1.17188e-010

Date: Tue Mar 30 12:50:34 2021
Total elapsed time: 0.134 seconds.

tnom = 27
temp = 27
method = modified trap
totiter = 31355
traniter = 2698
tranpoints = 1339
accept = 1286
rejected = 264
matrix size = 17
fillins = 0
solver = Normal
Matrix Compiler1:      22 opcodes  0.1/[0.1]/0.1
Matrix Compiler2: 751 bytes object code size  0.1/0.2/[0.1]

