Circuit: * C:\Users\107475\OneDrive - BMK Group GmbH & Co. KG\BMK-Abschlussprojekt\03_Simulation\CC-Logic\Draft4.asc

Direct Newton iteration failed to find .op point.  (Use ".option noopiter" to skip.)
Starting Gmin stepping
Gmin = 10
Gmin = 1.07374
Gmin = 0.115292
Gmin = 0.0123794
Gmin = 0.00132923
Gmin = 0.000142725
Gmin = 1.5325e-005
Gmin = 1.6455e-006
Gmin = 1.76685e-007
Gmin = 1.89714e-008
Gmin = 2.03704e-009
Gmin = 2.18725e-010
Gmin = 2.34854e-011
Gmin = 2.52173e-012
Gmin = 2.70769e-013
Gmin = 0
Gmin stepping succeeded in finding the operating point.


Date: Wed Mar 31 10:30:15 2021
Total elapsed time: 0.088 seconds.

tnom = 27
temp = 27
method = modified trap
totiter = 2499
traniter = 2088
tranpoints = 1045
accept = 1045
rejected = 0
matrix size = 19
fillins = 32
solver = Normal
Thread vector: 6.5/4.6[2] 2.8/1.9[2] 1.0/2.0[1] 0.1/0.8[1]  2592/500
Matrix Compiler1: 2.29 KB object code size  0.6/0.3/[0.2]
Matrix Compiler2: 2.19 KB object code size  0.3/0.3/[0.2]

