Circuit: * C:\Users\107475\OneDrive - BMK Group GmbH & Co. KG\BMK-Abschlussprojekt\03_Simulation\CC-Logic\Draft3.asc

Direct Newton iteration failed to find .op point.  (Use ".option noopiter" to skip.)
Starting Gmin stepping
Gmin = 10
Gmin = 1.07374
vernier = 0.5
vernier = 0.25
vernier = 0.125
vernier = 0.0625
Gmin = 1.08884
vernier = 0.03125
vernier = 0.015625
Gmin = 1.03122
vernier = 0.0078125
vernier = 0.00390625
Gmin = 1.01823
vernier = 0.00520833
vernier = 0.00260417
Gmin = 1.01162
vernier = 0.00347222
vernier = 0.00173611
vernier = 0.00231481
vernier = 0.00115741
Gmin = 1.00877
vernier = 0.00154321
vernier = 0.000771604
Gmin = 1.00673
vernier = 0.00102881
vernier = 0.000514403
vernier = 0.00068587
Gmin = 1.00553
vernier = 0.000514403
vernier = 0.00068587
vernier = 0.000514402
Gmin = 1.00475
Gmin = 0
Gmin stepping failed

Starting source stepping with srcstepmethod=0
Source Step = 3.0303%
Source Step = 33.3333%
Source Step = 45.4575%
Source Step = 45.4871%
Source Step = 45.5167%
Source Step = 45.5463%
Source Step = 45.5759%
Source Step = 45.6055%
vernier = 0.00146484
Source Step = 45.6425%
Source Step = 45.6868%
Source Step = 45.7312%
Source Step = 45.7756%
Source Step = 45.82%
vernier = 0.00219727
Source Step = 45.8733%
Source Step = 45.9399%
Source Step = 46.0065%
Source Step = 46.073%
Source Step = 46.1396%
vernier = 0.0032959
Source Step = 46.2162%
Source Step = 46.3161%
Source Step = 46.4159%
Source Step = 46.5158%
Source Step = 46.6157%
vernier = 0.00494385
Source Step = 46.7256%
Source Step = 46.8754%
Source Step = 47.0252%
Source Step = 47.175%
Source Step = 47.3248%
vernier = 0.00741577
Source Step = 47.4821%
Source Step = 47.7068%
Source Step = 47.9316%
Source Step = 48.1563%
Source Step = 48.381%
Source Step = 48.6057%
vernier = 0.0111237
Source Step = 48.9428%
Source Step = 49.2799%
Source Step = 49.617%
Source Step = 49.954%
Source Step = 50.2911%
vernier = 0.0166855
Source Step = 50.7799%
Source Step = 51.2855%
Source Step = 51.7911%
Source Step = 52.2967%
Source Step = 52.8024%
vernier = 0.0250282
Source Step = 53.5102%
Source Step = 54.2687%
Source Step = 55.0271%
Source Step = 55.7855%
Source Step = 56.544%
vernier = 0.0375423
Source Step = 57.5678%
Source Step = 58.7055%
Source Step = 59.8431%
Source Step = 60.9808%
Source Step = 62.1184%
vernier = 0.0563135
Source Step = 63.5974%
Source Step = 65.3038%
Source Step = 67.0103%
Source Step = 68.7168%
Source Step = 70.4233%
vernier = 0.0844703
Source Step = 72.5563%
Source Step = 75.116%
Source Step = 77.6758%
Source Step = 80.2355%
Source Step = 82.7952%
vernier = 0.126705
Source Step = 85.8668%
Source Step = 89.7064%
Source Step = 91.2602%
Source Step = 91.3202%
Source Step = 91.3802%
Source Step = 91.4402%
Source Step = 91.5002%
Source Step = 91.5602%
Source Step = 91.6201%
Source Step = 91.6801%
Source Step = 91.7401%
Source Step = 91.8001%
Source Step = 91.8601%
Source Step = 91.9201%
Source Step = 91.9801%
Source Step = 92.0401%
Source Step = 92.1001%
Source Step = 92.1601%
Source Step = 92.2201%
Source Step = 92.2801%
Source Step = 92.3401%
Source Step = 92.4001%
Source Step = 92.46%
Source Step = 92.52%
Source Step = 92.58%
Source Step = 92.64%
Source Step = 92.7%
Source Step = 92.76%
Source Step = 92.82%
Source Step = 92.88%
Source Step = 92.94%
Source Step = 93%
Source Step = 93.06%
Source Step = 93.12%
Source Step = 93.18%
Source Step = 93.24%
Source Step = 93.3%
Source Step = 93.3599%
Source Step = 93.4199%
Source Step = 93.4799%
Source Step = 93.5399%
Source Step = 93.5999%
Source Step = 93.6599%
Source Step = 93.7199%
Source Step = 93.7799%
Source Step = 93.8399%
Source Step = 93.8999%
Source Step = 93.9599%
Source Step = 94.0199%
Source Step = 94.0799%
Source Step = 94.1399%
Source Step = 94.1998%
Source Step = 94.2598%
Source Step = 94.3198%
Source Step = 94.3798%
Source Step = 94.4398%
Source Step = 94.4998%
Source Step = 94.5598%
Source Step = 94.6198%
Source Step = 94.6798%
Source Step = 94.7398%
Source Step = 94.7998%
Source Step = 94.8598%
Source Step = 94.9198%
Source Step = 94.9798%
Source Step = 95.0398%
Source Step = 95.0997%
Source Step = 95.1597%
Source Step = 95.2197%
Source Step = 95.2797%
Source Step = 95.3397%
Source Step = 95.3997%
Source Step = 95.4597%
Source Step = 95.5197%
Source Step = 95.5797%
Source Step = 95.6397%
Source Step = 95.6997%
Source Step = 95.7597%
Source Step = 95.8197%
Source Step = 95.8797%
Source Step = 95.9396%
Source Step = 95.9996%
Source Step = 96.0596%
Source Step = 96.1196%
Source Step = 96.1796%
Source Step = 96.2396%
Source Step = 96.2996%
Source Step = 96.3596%
Source Step = 96.4196%
Source Step = 96.4796%
Source Step = 96.5396%
Source Step = 96.5996%
Source Step = 96.6596%
Source Step = 96.7196%
Source Step = 96.7796%
Source Step = 96.8395%
Source Step = 96.8995%
Source Step = 96.9595%
Source Step = 97.0195%
Source Step = 97.0795%
Source Step = 97.1395%
Source Step = 97.1995%
Source Step = 97.2595%
Source Step = 97.3195%
Source Step = 97.3795%
Source Step = 97.4395%
Source Step = 97.4995%
Source Step = 97.5595%
Source Step = 97.6195%
Source Step = 97.6794%
Source Step = 97.7394%
Source Step = 97.7994%
Source Step = 97.8594%
Source Step = 97.9194%
Source Step = 97.9794%
Source Step = 98.0394%
Source Step = 98.0994%
Source Step = 98.1594%
Source Step = 98.2194%
Source Step = 98.2794%
Source Step = 98.3394%
Source Step = 98.3994%
Source Step = 98.4594%
Source Step = 98.5194%
Source Step = 98.5793%
Source Step = 98.6393%
Source Step = 98.6993%
Source Step = 98.7593%
Source Step = 98.8193%
Source Step = 98.8793%
Source Step = 98.9393%
Source Step = 98.9993%
Source Step = 99.0593%
Source Step = 99.1193%
Source Step = 99.1793%
Source Step = 99.2393%
Source Step = 99.2993%
Source Step = 99.3593%
Source Step = 99.4192%
Source Step = 99.4792%
Source Step = 99.5392%
Source Step = 99.5992%
Source Step = 99.6592%
Source Step = 99.7192%
Source Step = 99.7792%
Source Step = 99.8392%
Source Step = 99.8992%
Source Step = 99.9592%
Source Step = 100%
Source Step = 100%
Source Step = 100%
Source Step = 100%
Source Step = 100%
Source Step = 100%
Source Step = 100%
Source Step = 100%
Source Step = 100%
Source Step = 100%
Source Step = 100%
Source Step = 100%
Source Step = 100%
Source Step = 100%
Source Step = 100%
Source Step = 100%
Source Step = 100%
Trouble finding operating point....skipping operating point for Transient analysis.

Date: Wed Mar 31 08:50:17 2021
Total elapsed time: 7.281 seconds.

tnom = 27
temp = 27
method = modified trap
totiter = 123691
traniter = 0
tranpoints = 1
accept = 1
rejected = 0
matrix size = 35
fillins = 125
solver = Normal

